<?xml version="1.0" encoding="UTF-8" standalone="yes"?>
<template encoding-version="1.3">
    <description></description>
    <groupId>0927ddff-017c-1000-3f08-95a84646cb8e</groupId>
    <name>final_fin_fin</name>
    <snippet>
        <connections>
            <id>2931d75b-fce3-3464-0000-000000000000</id>
            <parentGroupId>d3edd9d7-3244-387e-0000-000000000000</parentGroupId>
            <backPressureDataSizeThreshold>1 GB</backPressureDataSizeThreshold>
            <backPressureObjectThreshold>10000</backPressureObjectThreshold>
            <destination>
                <groupId>d3edd9d7-3244-387e-0000-000000000000</groupId>
                <id>dc78f40c-2619-3a96-0000-000000000000</id>
                <type>PROCESSOR</type>
            </destination>
            <flowFileExpiration>0 sec</flowFileExpiration>
            <labelIndex>1</labelIndex>
            <loadBalanceCompression>DO_NOT_COMPRESS</loadBalanceCompression>
            <loadBalancePartitionAttribute></loadBalancePartitionAttribute>
            <loadBalanceStatus>LOAD_BALANCE_NOT_CONFIGURED</loadBalanceStatus>
            <loadBalanceStrategy>DO_NOT_LOAD_BALANCE</loadBalanceStrategy>
            <name></name>
            <selectedRelationships>failure</selectedRelationships>
            <source>
                <groupId>d3edd9d7-3244-387e-0000-000000000000</groupId>
                <id>bf9c7846-d52b-3d1d-0000-000000000000</id>
                <type>PROCESSOR</type>
            </source>
            <zIndex>0</zIndex>
        </connections>
        <connections>
            <id>3591013b-7f33-34f6-0000-000000000000</id>
            <parentGroupId>d3edd9d7-3244-387e-0000-000000000000</parentGroupId>
            <backPressureDataSizeThreshold>5 GB</backPressureDataSizeThreshold>
            <backPressureObjectThreshold>1000</backPressureObjectThreshold>
            <destination>
                <groupId>d3edd9d7-3244-387e-0000-000000000000</groupId>
                <id>49786b7f-11f0-39d5-0000-000000000000</id>
                <type>PROCESSOR</type>
            </destination>
            <flowFileExpiration>0 sec</flowFileExpiration>
            <labelIndex>1</labelIndex>
            <loadBalanceCompression>DO_NOT_COMPRESS</loadBalanceCompression>
            <loadBalancePartitionAttribute></loadBalancePartitionAttribute>
            <loadBalanceStatus>LOAD_BALANCE_NOT_CONFIGURED</loadBalanceStatus>
            <loadBalanceStrategy>DO_NOT_LOAD_BALANCE</loadBalanceStrategy>
            <name></name>
            <selectedRelationships>success</selectedRelationships>
            <source>
                <groupId>d3edd9d7-3244-387e-0000-000000000000</groupId>
                <id>eb21e1a5-f9e2-3fb8-0000-000000000000</id>
                <type>PROCESSOR</type>
            </source>
            <zIndex>0</zIndex>
        </connections>
        <connections>
            <id>4ae53dd8-aa99-36bc-0000-000000000000</id>
            <parentGroupId>d3edd9d7-3244-387e-0000-000000000000</parentGroupId>
            <backPressureDataSizeThreshold>5 GB</backPressureDataSizeThreshold>
            <backPressureObjectThreshold>1000</backPressureObjectThreshold>
            <destination>
                <groupId>d3edd9d7-3244-387e-0000-000000000000</groupId>
                <id>01941902-a7e0-39ad-0000-000000000000</id>
                <type>PROCESSOR</type>
            </destination>
            <flowFileExpiration>0 sec</flowFileExpiration>
            <labelIndex>1</labelIndex>
            <loadBalanceCompression>DO_NOT_COMPRESS</loadBalanceCompression>
            <loadBalancePartitionAttribute></loadBalancePartitionAttribute>
            <loadBalanceStatus>LOAD_BALANCE_NOT_CONFIGURED</loadBalanceStatus>
            <loadBalanceStrategy>DO_NOT_LOAD_BALANCE</loadBalanceStrategy>
            <name></name>
            <selectedRelationships>success</selectedRelationships>
            <source>
                <groupId>d3edd9d7-3244-387e-0000-000000000000</groupId>
                <id>705e6519-a2c4-3d96-0000-000000000000</id>
                <type>PROCESSOR</type>
            </source>
            <zIndex>0</zIndex>
        </connections>
        <connections>
            <id>82ae677a-6888-32e0-0000-000000000000</id>
            <parentGroupId>d3edd9d7-3244-387e-0000-000000000000</parentGroupId>
            <backPressureDataSizeThreshold>1 GB</backPressureDataSizeThreshold>
            <backPressureObjectThreshold>10000</backPressureObjectThreshold>
            <destination>
                <groupId>d3edd9d7-3244-387e-0000-000000000000</groupId>
                <id>dc78f40c-2619-3a96-0000-000000000000</id>
                <type>PROCESSOR</type>
            </destination>
            <flowFileExpiration>0 sec</flowFileExpiration>
            <labelIndex>1</labelIndex>
            <loadBalanceCompression>DO_NOT_COMPRESS</loadBalanceCompression>
            <loadBalancePartitionAttribute></loadBalancePartitionAttribute>
            <loadBalanceStatus>LOAD_BALANCE_NOT_CONFIGURED</loadBalanceStatus>
            <loadBalanceStrategy>DO_NOT_LOAD_BALANCE</loadBalanceStrategy>
            <name></name>
            <selectedRelationships>failure</selectedRelationships>
            <source>
                <groupId>d3edd9d7-3244-387e-0000-000000000000</groupId>
                <id>49786b7f-11f0-39d5-0000-000000000000</id>
                <type>PROCESSOR</type>
            </source>
            <zIndex>0</zIndex>
        </connections>
        <connections>
            <id>9721731f-0ef7-3c03-0000-000000000000</id>
            <parentGroupId>d3edd9d7-3244-387e-0000-000000000000</parentGroupId>
            <backPressureDataSizeThreshold>5 GB</backPressureDataSizeThreshold>
            <backPressureObjectThreshold>1000</backPressureObjectThreshold>
            <destination>
                <groupId>d3edd9d7-3244-387e-0000-000000000000</groupId>
                <id>cb97694f-2536-3dfe-0000-000000000000</id>
                <type>PROCESSOR</type>
            </destination>
            <flowFileExpiration>0 sec</flowFileExpiration>
            <labelIndex>1</labelIndex>
            <loadBalanceCompression>DO_NOT_COMPRESS</loadBalanceCompression>
            <loadBalancePartitionAttribute></loadBalancePartitionAttribute>
            <loadBalanceStatus>LOAD_BALANCE_NOT_CONFIGURED</loadBalanceStatus>
            <loadBalanceStrategy>DO_NOT_LOAD_BALANCE</loadBalanceStrategy>
            <name></name>
            <selectedRelationships>success</selectedRelationships>
            <source>
                <groupId>d3edd9d7-3244-387e-0000-000000000000</groupId>
                <id>705e6519-a2c4-3d96-0000-000000000000</id>
                <type>PROCESSOR</type>
            </source>
            <zIndex>0</zIndex>
        </connections>
        <connections>
            <id>9a10e2a8-3c81-386c-0000-000000000000</id>
            <parentGroupId>d3edd9d7-3244-387e-0000-000000000000</parentGroupId>
            <backPressureDataSizeThreshold>1 GB</backPressureDataSizeThreshold>
            <backPressureObjectThreshold>10000</backPressureObjectThreshold>
            <destination>
                <groupId>d3edd9d7-3244-387e-0000-000000000000</groupId>
                <id>dc78f40c-2619-3a96-0000-000000000000</id>
                <type>PROCESSOR</type>
            </destination>
            <flowFileExpiration>0 sec</flowFileExpiration>
            <labelIndex>1</labelIndex>
            <loadBalanceCompression>DO_NOT_COMPRESS</loadBalanceCompression>
            <loadBalancePartitionAttribute></loadBalancePartitionAttribute>
            <loadBalanceStatus>LOAD_BALANCE_NOT_CONFIGURED</loadBalanceStatus>
            <loadBalanceStrategy>DO_NOT_LOAD_BALANCE</loadBalanceStrategy>
            <name></name>
            <selectedRelationships>failure</selectedRelationships>
            <source>
                <groupId>d3edd9d7-3244-387e-0000-000000000000</groupId>
                <id>cb97694f-2536-3dfe-0000-000000000000</id>
                <type>PROCESSOR</type>
            </source>
            <zIndex>0</zIndex>
        </connections>
        <connections>
            <id>a4f6407f-0c47-3d4e-0000-000000000000</id>
            <parentGroupId>d3edd9d7-3244-387e-0000-000000000000</parentGroupId>
            <backPressureDataSizeThreshold>1 GB</backPressureDataSizeThreshold>
            <backPressureObjectThreshold>10000</backPressureObjectThreshold>
            <destination>
                <groupId>d3edd9d7-3244-387e-0000-000000000000</groupId>
                <id>42e6b0ef-da69-391f-0000-000000000000</id>
                <type>PROCESSOR</type>
            </destination>
            <flowFileExpiration>0 sec</flowFileExpiration>
            <labelIndex>1</labelIndex>
            <loadBalanceCompression>DO_NOT_COMPRESS</loadBalanceCompression>
            <loadBalancePartitionAttribute></loadBalancePartitionAttribute>
            <loadBalanceStatus>LOAD_BALANCE_NOT_CONFIGURED</loadBalanceStatus>
            <loadBalanceStrategy>DO_NOT_LOAD_BALANCE</loadBalanceStrategy>
            <name></name>
            <selectedRelationships>success</selectedRelationships>
            <source>
                <groupId>d3edd9d7-3244-387e-0000-000000000000</groupId>
                <id>dc78f40c-2619-3a96-0000-000000000000</id>
                <type>PROCESSOR</type>
            </source>
            <zIndex>0</zIndex>
        </connections>
        <connections>
            <id>ce6347cb-dc7f-3d78-0000-000000000000</id>
            <parentGroupId>d3edd9d7-3244-387e-0000-000000000000</parentGroupId>
            <backPressureDataSizeThreshold>5 GB</backPressureDataSizeThreshold>
            <backPressureObjectThreshold>1000</backPressureObjectThreshold>
            <destination>
                <groupId>d3edd9d7-3244-387e-0000-000000000000</groupId>
                <id>705e6519-a2c4-3d96-0000-000000000000</id>
                <type>PROCESSOR</type>
            </destination>
            <flowFileExpiration>0 sec</flowFileExpiration>
            <labelIndex>1</labelIndex>
            <loadBalanceCompression>DO_NOT_COMPRESS</loadBalanceCompression>
            <loadBalancePartitionAttribute></loadBalancePartitionAttribute>
            <loadBalanceStatus>LOAD_BALANCE_NOT_CONFIGURED</loadBalanceStatus>
            <loadBalanceStrategy>DO_NOT_LOAD_BALANCE</loadBalanceStrategy>
            <name></name>
            <selectedRelationships>success</selectedRelationships>
            <source>
                <groupId>d3edd9d7-3244-387e-0000-000000000000</groupId>
                <id>80bce25b-24cf-35a1-0000-000000000000</id>
                <type>PROCESSOR</type>
            </source>
            <zIndex>0</zIndex>
        </connections>
        <connections>
            <id>e302ebea-9708-3bba-0000-000000000000</id>
            <parentGroupId>d3edd9d7-3244-387e-0000-000000000000</parentGroupId>
            <backPressureDataSizeThreshold>1 GB</backPressureDataSizeThreshold>
            <backPressureObjectThreshold>10000</backPressureObjectThreshold>
            <destination>
                <groupId>d3edd9d7-3244-387e-0000-000000000000</groupId>
                <id>dc78f40c-2619-3a96-0000-000000000000</id>
                <type>PROCESSOR</type>
            </destination>
            <flowFileExpiration>0 sec</flowFileExpiration>
            <labelIndex>1</labelIndex>
            <loadBalanceCompression>DO_NOT_COMPRESS</loadBalanceCompression>
            <loadBalancePartitionAttribute></loadBalancePartitionAttribute>
            <loadBalanceStatus>LOAD_BALANCE_NOT_CONFIGURED</loadBalanceStatus>
            <loadBalanceStrategy>DO_NOT_LOAD_BALANCE</loadBalanceStrategy>
            <name></name>
            <selectedRelationships>failure</selectedRelationships>
            <source>
                <groupId>d3edd9d7-3244-387e-0000-000000000000</groupId>
                <id>01941902-a7e0-39ad-0000-000000000000</id>
                <type>PROCESSOR</type>
            </source>
            <zIndex>0</zIndex>
        </connections>
        <connections>
            <id>fd3d5aec-434a-3c3c-0000-000000000000</id>
            <parentGroupId>d3edd9d7-3244-387e-0000-000000000000</parentGroupId>
            <backPressureDataSizeThreshold>5 GB</backPressureDataSizeThreshold>
            <backPressureObjectThreshold>1000</backPressureObjectThreshold>
            <destination>
                <groupId>d3edd9d7-3244-387e-0000-000000000000</groupId>
                <id>bf9c7846-d52b-3d1d-0000-000000000000</id>
                <type>PROCESSOR</type>
            </destination>
            <flowFileExpiration>0 sec</flowFileExpiration>
            <labelIndex>1</labelIndex>
            <loadBalanceCompression>DO_NOT_COMPRESS</loadBalanceCompression>
            <loadBalancePartitionAttribute></loadBalancePartitionAttribute>
            <loadBalanceStatus>LOAD_BALANCE_NOT_CONFIGURED</loadBalanceStatus>
            <loadBalanceStrategy>DO_NOT_LOAD_BALANCE</loadBalanceStrategy>
            <name></name>
            <selectedRelationships>success</selectedRelationships>
            <source>
                <groupId>d3edd9d7-3244-387e-0000-000000000000</groupId>
                <id>eb21e1a5-f9e2-3fb8-0000-000000000000</id>
                <type>PROCESSOR</type>
            </source>
            <zIndex>0</zIndex>
        </connections>
        <labels>
            <id>29127157-b307-3230-0000-000000000000</id>
            <parentGroupId>d3edd9d7-3244-387e-0000-000000000000</parentGroupId>
            <position>
                <x>8.0</x>
                <y>0.0</y>
            </position>
            <height>1224.0</height>
            <label>Zapisywanie RAW plików w HDFS</label>
            <style>
                <entry>
                    <key>font-size</key>
                    <value>12px</value>
                </entry>
            </style>
            <width>1760.0</width>
        </labels>
        <labels>
            <id>72eeced1-109e-3912-0000-000000000000</id>
            <parentGroupId>d3edd9d7-3244-387e-0000-000000000000</parentGroupId>
            <position>
                <x>0.0</x>
                <y>1864.0</y>
            </position>
            <height>224.0</height>
            <label>Upload to HBase</label>
            <style>
                <entry>
                    <key>font-size</key>
                    <value>12px</value>
                </entry>
            </style>
            <width>800.0</width>
        </labels>
        <labels>
            <id>841349a3-b5b0-3ddb-0000-000000000000</id>
            <parentGroupId>d3edd9d7-3244-387e-0000-000000000000</parentGroupId>
            <position>
                <x>2.525648006087522</x>
                <y>1250.3064672087203</y>
            </position>
            <height>240.0</height>
            <label>Transform Bronze -&gt; Silver</label>
            <style>
                <entry>
                    <key>font-size</key>
                    <value>12px</value>
                </entry>
            </style>
            <width>2440.0</width>
        </labels>
        <labels>
            <id>a64e68f9-6192-35f2-0000-000000000000</id>
            <parentGroupId>d3edd9d7-3244-387e-0000-000000000000</parentGroupId>
            <position>
                <x>0.0</x>
                <y>1552.0</y>
            </position>
            <height>256.0</height>
            <label>Transform Silver -&gt; Gold</label>
            <style>
                <entry>
                    <key>font-size</key>
                    <value>12px</value>
                </entry>
            </style>
            <width>408.0</width>
        </labels>
        <processors>
            <id>01941902-a7e0-39ad-0000-000000000000</id>
            <parentGroupId>d3edd9d7-3244-387e-0000-000000000000</parentGroupId>
            <position>
                <x>72.0</x>
                <y>728.0</y>
            </position>
            <bundle>
                <artifact>nifi-hadoop-nar</artifact>
                <group>org.apache.nifi</group>
                <version>1.14.0</version>
            </bundle>
            <config>
                <bulletinLevel>WARN</bulletinLevel>
                <comments></comments>
                <concurrentlySchedulableTaskCount>1</concurrentlySchedulableTaskCount>
                <descriptors>
                    <entry>
                        <key>Hadoop Configuration Resources</key>
                        <value>
                            <name>Hadoop Configuration Resources</name>
                        </value>
                    </entry>
                    <entry>
                        <key>kerberos-credentials-service</key>
                        <value>
                            <identifiesControllerService>org.apache.nifi.kerberos.KerberosCredentialsService</identifiesControllerService>
                            <name>kerberos-credentials-service</name>
                        </value>
                    </entry>
                    <entry>
                        <key>Kerberos Principal</key>
                        <value>
                            <name>Kerberos Principal</name>
                        </value>
                    </entry>
                    <entry>
                        <key>Kerberos Keytab</key>
                        <value>
                            <name>Kerberos Keytab</name>
                        </value>
                    </entry>
                    <entry>
                        <key>Kerberos Password</key>
                        <value>
                            <name>Kerberos Password</name>
                        </value>
                    </entry>
                    <entry>
                        <key>Kerberos Relogin Period</key>
                        <value>
                            <name>Kerberos Relogin Period</name>
                        </value>
                    </entry>
                    <entry>
                        <key>Additional Classpath Resources</key>
                        <value>
                            <name>Additional Classpath Resources</name>
                        </value>
                    </entry>
                    <entry>
                        <key>Directory</key>
                        <value>
                            <name>Directory</name>
                        </value>
                    </entry>
                    <entry>
                        <key>Conflict Resolution Strategy</key>
                        <value>
                            <name>Conflict Resolution Strategy</name>
                        </value>
                    </entry>
                    <entry>
                        <key>Block Size</key>
                        <value>
                            <name>Block Size</name>
                        </value>
                    </entry>
                    <entry>
                        <key>IO Buffer Size</key>
                        <value>
                            <name>IO Buffer Size</name>
                        </value>
                    </entry>
                    <entry>
                        <key>Replication</key>
                        <value>
                            <name>Replication</name>
                        </value>
                    </entry>
                    <entry>
                        <key>Permissions umask</key>
                        <value>
                            <name>Permissions umask</name>
                        </value>
                    </entry>
                    <entry>
                        <key>Remote Owner</key>
                        <value>
                            <name>Remote Owner</name>
                        </value>
                    </entry>
                    <entry>
                        <key>Remote Group</key>
                        <value>
                            <name>Remote Group</name>
                        </value>
                    </entry>
                    <entry>
                        <key>Compression codec</key>
                        <value>
                            <name>Compression codec</name>
                        </value>
                    </entry>
                    <entry>
                        <key>Ignore Locality</key>
                        <value>
                            <name>Ignore Locality</name>
                        </value>
                    </entry>
                </descriptors>
                <executionNode>ALL</executionNode>
                <lossTolerant>false</lossTolerant>
                <penaltyDuration>30 sec</penaltyDuration>
                <properties>
                    <entry>
                        <key>Hadoop Configuration Resources</key>
                        <value>/usr/local/hadoop/etc/hadoop/hdfs-site.xml,/usr/local/hadoop/etc/hadoop/core-site.xml
</value>
                    </entry>
                    <entry>
                        <key>kerberos-credentials-service</key>
                    </entry>
                    <entry>
                        <key>Kerberos Principal</key>
                    </entry>
                    <entry>
                        <key>Kerberos Keytab</key>
                    </entry>
                    <entry>
                        <key>Kerberos Password</key>
                    </entry>
                    <entry>
                        <key>Kerberos Relogin Period</key>
                        <value>4 hours</value>
                    </entry>
                    <entry>
                        <key>Additional Classpath Resources</key>
                    </entry>
                    <entry>
                        <key>Directory</key>
                        <value>/user/projekt/bronze/stage/pogoda/</value>
                    </entry>
                    <entry>
                        <key>Conflict Resolution Strategy</key>
                        <value>replace</value>
                    </entry>
                    <entry>
                        <key>Block Size</key>
                    </entry>
                    <entry>
                        <key>IO Buffer Size</key>
                    </entry>
                    <entry>
                        <key>Replication</key>
                    </entry>
                    <entry>
                        <key>Permissions umask</key>
                    </entry>
                    <entry>
                        <key>Remote Owner</key>
                    </entry>
                    <entry>
                        <key>Remote Group</key>
                    </entry>
                    <entry>
                        <key>Compression codec</key>
                        <value>NONE</value>
                    </entry>
                    <entry>
                        <key>Ignore Locality</key>
                        <value>false</value>
                    </entry>
                </properties>
                <runDurationMillis>0</runDurationMillis>
                <schedulingPeriod>0 sec</schedulingPeriod>
                <schedulingStrategy>TIMER_DRIVEN</schedulingStrategy>
                <yieldDuration>1 sec</yieldDuration>
            </config>
            <executionNodeRestricted>false</executionNodeRestricted>
            <name>PutHDFS_staging_data</name>
            <relationships>
                <autoTerminate>false</autoTerminate>
                <name>failure</name>
            </relationships>
            <relationships>
                <autoTerminate>true</autoTerminate>
                <name>success</name>
            </relationships>
            <state>RUNNING</state>
            <style/>
            <type>org.apache.nifi.processors.hadoop.PutHDFS</type>
        </processors>
        <processors>
            <id>01c9d22a-3cc4-3068-0000-000000000000</id>
            <parentGroupId>d3edd9d7-3244-387e-0000-000000000000</parentGroupId>
            <position>
                <x>842.5256480060875</x>
                <y>1306.3064672087203</y>
            </position>
            <bundle>
                <artifact>nifi-standard-nar</artifact>
                <group>org.apache.nifi</group>
                <version>1.14.0</version>
            </bundle>
            <config>
                <bulletinLevel>WARN</bulletinLevel>
                <comments></comments>
                <concurrentlySchedulableTaskCount>1</concurrentlySchedulableTaskCount>
                <descriptors>
                    <entry>
                        <key>Command</key>
                        <value>
                            <name>Command</name>
                        </value>
                    </entry>
                    <entry>
                        <key>Command Arguments</key>
                        <value>
                            <name>Command Arguments</name>
                        </value>
                    </entry>
                    <entry>
                        <key>Batch Duration</key>
                        <value>
                            <name>Batch Duration</name>
                        </value>
                    </entry>
                    <entry>
                        <key>Redirect Error Stream</key>
                        <value>
                            <name>Redirect Error Stream</name>
                        </value>
                    </entry>
                    <entry>
                        <key>Working Directory</key>
                        <value>
                            <name>Working Directory</name>
                        </value>
                    </entry>
                    <entry>
                        <key>Argument Delimiter</key>
                        <value>
                            <name>Argument Delimiter</name>
                        </value>
                    </entry>
                    <entry>
                        <key>scriptName</key>
                        <value>
                            <name>scriptName</name>
                        </value>
                    </entry>
                </descriptors>
                <executionNode>ALL</executionNode>
                <lossTolerant>false</lossTolerant>
                <penaltyDuration>30 sec</penaltyDuration>
                <properties>
                    <entry>
                        <key>Command</key>
                        <value>/usr/local/spark/bin/spark-submit</value>
                    </entry>
                    <entry>
                        <key>Command Arguments</key>
                        <value>--master local[2] /home/vagrant/projekt/transformations/airplanes_silver.py</value>
                    </entry>
                    <entry>
                        <key>Batch Duration</key>
                    </entry>
                    <entry>
                        <key>Redirect Error Stream</key>
                        <value>false</value>
                    </entry>
                    <entry>
                        <key>Working Directory</key>
                        <value>/</value>
                    </entry>
                    <entry>
                        <key>Argument Delimiter</key>
                        <value> </value>
                    </entry>
                    <entry>
                        <key>scriptName</key>
                        <value>airplanes_silver.py</value>
                    </entry>
                </properties>
                <runDurationMillis>0</runDurationMillis>
                <schedulingPeriod>0 30 6 1 * ?</schedulingPeriod>
                <schedulingStrategy>CRON_DRIVEN</schedulingStrategy>
                <yieldDuration>1 sec</yieldDuration>
            </config>
            <executionNodeRestricted>false</executionNodeRestricted>
            <name>BronzToSilv_Airplanes</name>
            <relationships>
                <autoTerminate>true</autoTerminate>
                <name>success</name>
            </relationships>
            <state>STOPPED</state>
            <style/>
            <type>org.apache.nifi.processors.standard.ExecuteProcess</type>
        </processors>
        <processors>
            <id>42e6b0ef-da69-391f-0000-000000000000</id>
            <parentGroupId>d3edd9d7-3244-387e-0000-000000000000</parentGroupId>
            <position>
                <x>1384.0</x>
                <y>1024.0</y>
            </position>
            <bundle>
                <artifact>nifi-standard-nar</artifact>
                <group>org.apache.nifi</group>
                <version>1.14.0</version>
            </bundle>
            <config>
                <bulletinLevel>WARN</bulletinLevel>
                <comments></comments>
                <concurrentlySchedulableTaskCount>1</concurrentlySchedulableTaskCount>
                <descriptors>
                    <entry>
                        <key>Directory</key>
                        <value>
                            <name>Directory</name>
                        </value>
                    </entry>
                    <entry>
                        <key>Conflict Resolution Strategy</key>
                        <value>
                            <name>Conflict Resolution Strategy</name>
                        </value>
                    </entry>
                    <entry>
                        <key>Create Missing Directories</key>
                        <value>
                            <name>Create Missing Directories</name>
                        </value>
                    </entry>
                    <entry>
                        <key>Maximum File Count</key>
                        <value>
                            <name>Maximum File Count</name>
                        </value>
                    </entry>
                    <entry>
                        <key>Last Modified Time</key>
                        <value>
                            <name>Last Modified Time</name>